24

C          1.62464       -0.36523       -0.35370
C          0.53504        0.73037       -0.26500
C         -0.86616        0.07117       -0.09780
C         -2.03296        1.09067       -0.26880
C         -3.40416        0.35657       -0.16820
C         -4.53956        1.32607       -0.49110
O          2.92114        0.15917       -0.29240
O          0.60364        1.46067       -1.47490
O         -0.88176       -0.50703        1.19100
O         -3.53546       -0.32633        1.05830
O         -5.41756        1.59487        0.29240
H          1.49334       -0.98243       -1.26450
H          1.58044       -1.03293        0.52440
H          0.74274        1.40787        0.59940
H         -0.99196       -0.73173       -0.86640
O         -1.95596        2.17787        0.61750
H         -3.42996       -0.47873       -0.90770
H         -4.51476        1.77707       -1.49560
H          3.03744        0.71987       -1.04960
H          0.24734        2.31887       -1.28850
H         -1.77676       -0.81943        1.33440
H         -3.89846        0.27757        1.69710
H         -1.97486        1.58687       -1.26530
H         -1.77026        1.83427        1.48400
